6

C       -0.68286304     0.00599810    -0.06188438
C        0.64552142    -0.01750068    -0.03868767
H       -1.16586298     0.95948709    -0.12971889
H       -1.31290154    -0.87281086     0.13366405
H        1.10164603     0.95344167    -0.18000318
H        1.26460198    -0.87305199     0.07325708
