6

C       -0.74742395    -0.01137283     0.00898760
C        0.70494628     0.01343446     0.00542370
H       -1.02015732     0.66276380    -0.83959900
H       -1.44464101    -0.84579287     0.07351952
H        1.38124500     0.85438806     0.10387425
H        1.03223831    -0.66592554    -0.81074733
