     6
  Step:  1000            Position(A)                                  Velocity(au)
C        -0.68286304     0.00599810    -0.06188438    -0.00013154    -0.00000967    -0.00000843
C         0.64552142    -0.01750068    -0.03868767     0.00009164    -0.00007844    -0.00019559
H        -1.16586298     0.95948709    -0.12971889     0.00057862     0.00068498     0.00009470
H        -1.31290154    -0.87281086     0.13366405     0.00117260     0.00008596     0.00037461
H         1.10164603     0.95344167    -0.18000318    -0.00091275    -0.00008478     0.00101957
H         1.26460198    -0.87305199     0.07325708    -0.00036305     0.00036376     0.00094225
